* NGSPICE file created from Top.ext - technology: sky130A

* Black-box entry subcircuit for sky130_fd_sc_hd__tapvpwrvgnd_1 abstract view
.subckt sky130_fd_sc_hd__tapvpwrvgnd_1 VGND VPWR
.ends

* Black-box entry subcircuit for sky130_fd_sc_hd__fill_2 abstract view
.subckt sky130_fd_sc_hd__fill_2 VGND VNB VPB VPWR
.ends

* Black-box entry subcircuit for sky130_fd_sc_hd__decap_3 abstract view
.subckt sky130_fd_sc_hd__decap_3 VGND VNB VPB VPWR
.ends

* Black-box entry subcircuit for sky130_ef_sc_hd__decap_12 abstract view
.subckt sky130_ef_sc_hd__decap_12 VGND VNB VPB VPWR
.ends

* Black-box entry subcircuit for sky130_fd_sc_hd__and2_1 abstract view
.subckt sky130_fd_sc_hd__and2_1 A B VGND VNB VPB VPWR X
.ends

* Black-box entry subcircuit for sky130_fd_sc_hd__dfxtp_1 abstract view
.subckt sky130_fd_sc_hd__dfxtp_1 CLK D VGND VNB VPB VPWR Q
.ends

* Black-box entry subcircuit for sky130_fd_sc_hd__dfrtp_1 abstract view
.subckt sky130_fd_sc_hd__dfrtp_1 CLK D RESET_B VGND VNB VPB VPWR Q
.ends

* Black-box entry subcircuit for sky130_fd_sc_hd__xor2_1 abstract view
.subckt sky130_fd_sc_hd__xor2_1 A B VGND VNB VPB VPWR X
.ends

* Black-box entry subcircuit for sky130_fd_sc_hd__nor2_1 abstract view
.subckt sky130_fd_sc_hd__nor2_1 A B VGND VNB VPB VPWR Y
.ends

* Black-box entry subcircuit for sky130_fd_sc_hd__and2b_1 abstract view
.subckt sky130_fd_sc_hd__and2b_1 A_N B VGND VNB VPB VPWR X
.ends

* Black-box entry subcircuit for sky130_fd_sc_hd__inv_2 abstract view
.subckt sky130_fd_sc_hd__inv_2 A VGND VNB VPB VPWR Y
.ends

* Black-box entry subcircuit for sky130_fd_sc_hd__fill_1 abstract view
.subckt sky130_fd_sc_hd__fill_1 VGND VNB VPB VPWR
.ends

* Black-box entry subcircuit for sky130_fd_sc_hd__or4_2 abstract view
.subckt sky130_fd_sc_hd__or4_2 A B C D VGND VNB VPB VPWR X
.ends

* Black-box entry subcircuit for sky130_fd_sc_hd__and3b_1 abstract view
.subckt sky130_fd_sc_hd__and3b_1 A_N B C VGND VNB VPB VPWR X
.ends

* Black-box entry subcircuit for sky130_fd_sc_hd__decap_8 abstract view
.subckt sky130_fd_sc_hd__decap_8 VGND VNB VPB VPWR
.ends

* Black-box entry subcircuit for sky130_fd_sc_hd__clkbuf_1 abstract view
.subckt sky130_fd_sc_hd__clkbuf_1 A VGND VNB VPB VPWR X
.ends

* Black-box entry subcircuit for sky130_fd_sc_hd__or2b_1 abstract view
.subckt sky130_fd_sc_hd__or2b_1 A B_N VGND VNB VPB VPWR X
.ends

* Black-box entry subcircuit for sky130_fd_sc_hd__and3_1 abstract view
.subckt sky130_fd_sc_hd__and3_1 A B C VGND VNB VPB VPWR X
.ends

* Black-box entry subcircuit for sky130_fd_sc_hd__a211oi_1 abstract view
.subckt sky130_fd_sc_hd__a211oi_1 A1 A2 B1 C1 VGND VNB VPB VPWR Y
.ends

* Black-box entry subcircuit for sky130_fd_sc_hd__a31o_1 abstract view
.subckt sky130_fd_sc_hd__a31o_1 A1 A2 A3 B1 VGND VNB VPB VPWR X
.ends

* Black-box entry subcircuit for sky130_fd_sc_hd__a22o_1 abstract view
.subckt sky130_fd_sc_hd__a22o_1 A1 A2 B1 B2 VGND VNB VPB VPWR X
.ends

* Black-box entry subcircuit for sky130_fd_sc_hd__buf_1 abstract view
.subckt sky130_fd_sc_hd__buf_1 A VGND VNB VPB VPWR X
.ends

* Black-box entry subcircuit for sky130_fd_sc_hd__dlygate4sd3_1 abstract view
.subckt sky130_fd_sc_hd__dlygate4sd3_1 A VGND VNB VPB VPWR X
.ends

* Black-box entry subcircuit for sky130_fd_sc_hd__decap_6 abstract view
.subckt sky130_fd_sc_hd__decap_6 VGND VNB VPB VPWR
.ends

* Black-box entry subcircuit for sky130_fd_sc_hd__decap_4 abstract view
.subckt sky130_fd_sc_hd__decap_4 VGND VNB VPB VPWR
.ends

* Black-box entry subcircuit for sky130_fd_sc_hd__mux2_1 abstract view
.subckt sky130_fd_sc_hd__mux2_1 A0 A1 S VGND VNB VPB VPWR X
.ends

* Black-box entry subcircuit for sky130_fd_sc_hd__buf_2 abstract view
.subckt sky130_fd_sc_hd__buf_2 A VGND VNB VPB VPWR X
.ends

* Black-box entry subcircuit for sky130_fd_sc_hd__clkbuf_2 abstract view
.subckt sky130_fd_sc_hd__clkbuf_2 A VGND VNB VPB VPWR X
.ends

* Black-box entry subcircuit for sky130_fd_sc_hd__dfrtp_4 abstract view
.subckt sky130_fd_sc_hd__dfrtp_4 CLK D RESET_B VGND VNB VPB VPWR Q
.ends

* Black-box entry subcircuit for sky130_fd_sc_hd__a41o_1 abstract view
.subckt sky130_fd_sc_hd__a41o_1 A1 A2 A3 A4 B1 VGND VNB VPB VPWR X
.ends

* Black-box entry subcircuit for sky130_fd_sc_hd__a21o_1 abstract view
.subckt sky130_fd_sc_hd__a21o_1 A1 A2 B1 VGND VNB VPB VPWR X
.ends

* Black-box entry subcircuit for sky130_fd_sc_hd__o22a_1 abstract view
.subckt sky130_fd_sc_hd__o22a_1 A1 A2 B1 B2 VGND VNB VPB VPWR X
.ends

* Black-box entry subcircuit for sky130_fd_sc_hd__or3b_1 abstract view
.subckt sky130_fd_sc_hd__or3b_1 A B C_N VGND VNB VPB VPWR X
.ends

* Black-box entry subcircuit for sky130_fd_sc_hd__clkbuf_4 abstract view
.subckt sky130_fd_sc_hd__clkbuf_4 A VGND VNB VPB VPWR X
.ends

* Black-box entry subcircuit for sky130_fd_sc_hd__mux2_2 abstract view
.subckt sky130_fd_sc_hd__mux2_2 A0 A1 S VGND VNB VPB VPWR X
.ends

* Black-box entry subcircuit for sky130_fd_sc_hd__dfrtp_2 abstract view
.subckt sky130_fd_sc_hd__dfrtp_2 CLK D RESET_B VGND VNB VPB VPWR Q
.ends

* Black-box entry subcircuit for sky130_fd_sc_hd__a21oi_1 abstract view
.subckt sky130_fd_sc_hd__a21oi_1 A1 A2 B1 VGND VNB VPB VPWR Y
.ends

* Black-box entry subcircuit for sky130_fd_sc_hd__o31a_1 abstract view
.subckt sky130_fd_sc_hd__o31a_1 A1 A2 A3 B1 VGND VNB VPB VPWR X
.ends

* Black-box entry subcircuit for sky130_fd_sc_hd__o211a_1 abstract view
.subckt sky130_fd_sc_hd__o211a_1 A1 A2 B1 C1 VGND VNB VPB VPWR X
.ends

* Black-box entry subcircuit for sky130_fd_sc_hd__nand2_1 abstract view
.subckt sky130_fd_sc_hd__nand2_1 A B VGND VNB VPB VPWR Y
.ends

* Black-box entry subcircuit for sky130_fd_sc_hd__a211o_1 abstract view
.subckt sky130_fd_sc_hd__a211o_1 A1 A2 B1 C1 VGND VNB VPB VPWR X
.ends

* Black-box entry subcircuit for sky130_fd_sc_hd__dlymetal6s2s_1 abstract view
.subckt sky130_fd_sc_hd__dlymetal6s2s_1 A VGND VNB VPB VPWR X
.ends

* Black-box entry subcircuit for sky130_fd_sc_hd__o21a_1 abstract view
.subckt sky130_fd_sc_hd__o21a_1 A1 A2 B1 VGND VNB VPB VPWR X
.ends

* Black-box entry subcircuit for sky130_fd_sc_hd__a32o_1 abstract view
.subckt sky130_fd_sc_hd__a32o_1 A1 A2 A3 B1 B2 VGND VNB VPB VPWR X
.ends

* Black-box entry subcircuit for sky130_fd_sc_hd__buf_4 abstract view
.subckt sky130_fd_sc_hd__buf_4 A VGND VNB VPB VPWR X
.ends

* Black-box entry subcircuit for sky130_fd_sc_hd__o31ai_1 abstract view
.subckt sky130_fd_sc_hd__o31ai_1 A1 A2 A3 B1 VGND VNB VPB VPWR Y
.ends

* Black-box entry subcircuit for sky130_fd_sc_hd__or2_1 abstract view
.subckt sky130_fd_sc_hd__or2_1 A B VGND VNB VPB VPWR X
.ends

* Black-box entry subcircuit for sky130_fd_sc_hd__dfstp_2 abstract view
.subckt sky130_fd_sc_hd__dfstp_2 CLK D SET_B VGND VNB VPB VPWR Q
.ends

* Black-box entry subcircuit for sky130_fd_sc_hd__xnor2_1 abstract view
.subckt sky130_fd_sc_hd__xnor2_1 A B VGND VNB VPB VPWR Y
.ends

* Black-box entry subcircuit for sky130_fd_sc_hd__o21ai_1 abstract view
.subckt sky130_fd_sc_hd__o21ai_1 A1 A2 B1 VGND VNB VPB VPWR Y
.ends

* Black-box entry subcircuit for sky130_fd_sc_hd__nor2_2 abstract view
.subckt sky130_fd_sc_hd__nor2_2 A B VGND VNB VPB VPWR Y
.ends

* Black-box entry subcircuit for sky130_fd_sc_hd__clkbuf_16 abstract view
.subckt sky130_fd_sc_hd__clkbuf_16 A VGND VNB VPB VPWR X
.ends

* Black-box entry subcircuit for sky130_fd_sc_hd__a2111o_1 abstract view
.subckt sky130_fd_sc_hd__a2111o_1 A1 A2 B1 C1 D1 VGND VNB VPB VPWR X
.ends

* Black-box entry subcircuit for sky130_fd_sc_hd__o31a_2 abstract view
.subckt sky130_fd_sc_hd__o31a_2 A1 A2 A3 B1 VGND VNB VPB VPWR X
.ends

* Black-box entry subcircuit for sky130_fd_sc_hd__mux4_1 abstract view
.subckt sky130_fd_sc_hd__mux4_1 A0 A1 A2 A3 S0 S1 VGND VNB VPB VPWR X
.ends

* Black-box entry subcircuit for sky130_fd_sc_hd__buf_6 abstract view
.subckt sky130_fd_sc_hd__buf_6 A VGND VNB VPB VPWR X
.ends

* Black-box entry subcircuit for sky130_fd_sc_hd__or4_1 abstract view
.subckt sky130_fd_sc_hd__or4_1 A B C D VGND VNB VPB VPWR X
.ends

* Black-box entry subcircuit for sky130_fd_sc_hd__dfstp_1 abstract view
.subckt sky130_fd_sc_hd__dfstp_1 CLK D SET_B VGND VNB VPB VPWR Q
.ends

* Black-box entry subcircuit for sky130_fd_sc_hd__o211ai_1 abstract view
.subckt sky130_fd_sc_hd__o211ai_1 A1 A2 B1 C1 VGND VNB VPB VPWR Y
.ends

* Black-box entry subcircuit for sky130_fd_sc_hd__and4_1 abstract view
.subckt sky130_fd_sc_hd__and4_1 A B C D VGND VNB VPB VPWR X
.ends

* Black-box entry subcircuit for sky130_fd_sc_hd__a221o_1 abstract view
.subckt sky130_fd_sc_hd__a221o_1 A1 A2 B1 B2 C1 VGND VNB VPB VPWR X
.ends

* Black-box entry subcircuit for sky130_fd_sc_hd__o2bb2a_1 abstract view
.subckt sky130_fd_sc_hd__o2bb2a_1 A1_N A2_N B1 B2 VGND VNB VPB VPWR X
.ends

* Black-box entry subcircuit for sky130_fd_sc_hd__or3_1 abstract view
.subckt sky130_fd_sc_hd__or3_1 A B C VGND VNB VPB VPWR X
.ends

* Black-box entry subcircuit for sky130_fd_sc_hd__and4bb_1 abstract view
.subckt sky130_fd_sc_hd__and4bb_1 A_N B_N C D VGND VNB VPB VPWR X
.ends

* Black-box entry subcircuit for sky130_fd_sc_hd__o41a_1 abstract view
.subckt sky130_fd_sc_hd__o41a_1 A1 A2 A3 A4 B1 VGND VNB VPB VPWR X
.ends

* Black-box entry subcircuit for sky130_fd_sc_hd__a2bb2o_1 abstract view
.subckt sky130_fd_sc_hd__a2bb2o_1 A1_N A2_N B1 B2 VGND VNB VPB VPWR X
.ends

* Black-box entry subcircuit for sky130_fd_sc_hd__or3_2 abstract view
.subckt sky130_fd_sc_hd__or3_2 A B C VGND VNB VPB VPWR X
.ends

* Black-box entry subcircuit for sky130_fd_sc_hd__o32a_1 abstract view
.subckt sky130_fd_sc_hd__o32a_1 A1 A2 A3 B1 B2 VGND VNB VPB VPWR X
.ends

* Black-box entry subcircuit for sky130_fd_sc_hd__a221o_2 abstract view
.subckt sky130_fd_sc_hd__a221o_2 A1 A2 B1 B2 C1 VGND VNB VPB VPWR X
.ends

* Black-box entry subcircuit for sky130_fd_sc_hd__or4bb_2 abstract view
.subckt sky130_fd_sc_hd__or4bb_2 A B C_N D_N VGND VNB VPB VPWR X
.ends

* Black-box entry subcircuit for sky130_fd_sc_hd__nand3b_1 abstract view
.subckt sky130_fd_sc_hd__nand3b_1 A_N B C VGND VNB VPB VPWR Y
.ends

* Black-box entry subcircuit for sky130_fd_sc_hd__a311o_1 abstract view
.subckt sky130_fd_sc_hd__a311o_1 A1 A2 A3 B1 C1 VGND VNB VPB VPWR X
.ends

* Black-box entry subcircuit for sky130_fd_sc_hd__diode_2 abstract view
.subckt sky130_fd_sc_hd__diode_2 DIODE VGND VNB VPB VPWR
.ends

* Black-box entry subcircuit for sky130_fd_sc_hd__or4bb_1 abstract view
.subckt sky130_fd_sc_hd__or4bb_1 A B C_N D_N VGND VNB VPB VPWR X
.ends

* Black-box entry subcircuit for sky130_fd_sc_hd__o211a_4 abstract view
.subckt sky130_fd_sc_hd__o211a_4 A1 A2 B1 C1 VGND VNB VPB VPWR X
.ends

* Black-box entry subcircuit for sky130_fd_sc_hd__clkdlybuf4s25_1 abstract view
.subckt sky130_fd_sc_hd__clkdlybuf4s25_1 A VGND VNB VPB VPWR X
.ends

.subckt Top CLK_EXT CLK_PLL CLK_SR Data_SR NMOS1_PS1 NMOS1_PS2 NMOS2_PS1 NMOS2_PS2
+ NMOS_PS3 PMOS1_PS1 PMOS1_PS2 PMOS2_PS1 PMOS2_PS2 PMOS_PS3 RST SIGNAL_OUTPUT VGND
+ VPWR d1[0] d1[1] d1[2] d1[3] d1[4] d1[5] d2[0] d2[1] d2[2] d2[3] d2[4] d2[5]
XTAP_177 VGND VPWR sky130_fd_sc_hd__tapvpwrvgnd_1
XTAP_188 VGND VPWR sky130_fd_sc_hd__tapvpwrvgnd_1
XTAP_199 VGND VPWR sky130_fd_sc_hd__tapvpwrvgnd_1
XFILLER_0_32_225 VGND VGND VPWR VPWR sky130_fd_sc_hd__fill_2
XFILLER_0_32_203 VGND VGND VPWR VPWR sky130_fd_sc_hd__decap_3
XFILLER_0_23_225 VGND VGND VPWR VPWR sky130_ef_sc_hd__decap_12
XFILLER_0_23_269 VGND VGND VPWR VPWR sky130_fd_sc_hd__fill_2
X_1270_ _0612_ net40 VGND VGND VPWR VPWR _0623_ sky130_fd_sc_hd__and2_1
X_0985_ Shift_Register_Inst.data_out\[16\] net8 VGND VGND VPWR VPWR _0444_ sky130_fd_sc_hd__and2_1
X_1468_ clknet_3_0__leaf_Dead_Time_Generator_inst_1.clk _0191_ VGND VGND VPWR VPWR
+ Dead_Time_Generator_inst_2.go sky130_fd_sc_hd__dfxtp_1
X_1399_ clknet_3_3__leaf_Dead_Time_Generator_inst_1.clk _0011_ _0098_ VGND VGND VPWR
+ VPWR Signal_Generator_1_0phase_inst.count\[3\] sky130_fd_sc_hd__dfrtp_1
XFILLER_0_9_252 VGND VGND VPWR VPWR sky130_ef_sc_hd__decap_12
X_0770_ Signal_Generator_1_0phase_inst.count\[2\] _0280_ VGND VGND VPWR VPWR _0283_
+ sky130_fd_sc_hd__xor2_1
X_1253_ _0563_ _0605_ VGND VGND VPWR VPWR _0606_ sky130_fd_sc_hd__nor2_1
X_1322_ Dead_Time_Generator_inst_3.count_dt\[0\] Dead_Time_Generator_inst_1.dt\[0\]
+ VGND VGND VPWR VPWR _0663_ sky130_fd_sc_hd__and2b_1
X_1184_ _0554_ VGND VGND VPWR VPWR _0132_ sky130_fd_sc_hd__inv_2
X_0968_ Signal_Generator_2_270phase_inst.count\[2\] _0425_ VGND VGND VPWR VPWR _0432_
+ sky130_fd_sc_hd__xor2_1
XFILLER_0_24_83 VGND VGND VPWR VPWR sky130_fd_sc_hd__fill_1
X_0899_ Signal_Generator_2_90phase_inst.count\[3\] Signal_Generator_2_90phase_inst.count\[2\]
+ Signal_Generator_2_90phase_inst.count\[1\] Signal_Generator_2_90phase_inst.count\[0\]
+ VGND VGND VPWR VPWR _0380_ sky130_fd_sc_hd__or4_2
XFILLER_0_0_29 VGND VGND VPWR VPWR sky130_fd_sc_hd__fill_2
X_0822_ net59 VGND VGND VPWR VPWR _0015_ sky130_fd_sc_hd__inv_2
XFILLER_0_28_169 VGND VGND VPWR VPWR sky130_fd_sc_hd__fill_2
X_0684_ Shift_Register_Inst.shift_state\[4\] Shift_Register_Inst.shift_state\[1\]
+ Shift_Register_Inst.shift_state\[0\] VGND VGND VPWR VPWR _0221_ sky130_fd_sc_hd__and3b_1
XFILLER_0_3_225 VGND VGND VPWR VPWR sky130_fd_sc_hd__fill_2
XFILLER_0_10_85 VGND VGND VPWR VPWR sky130_fd_sc_hd__decap_8
X_0753_ _0270_ VGND VGND VPWR VPWR _0152_ sky130_fd_sc_hd__clkbuf_1
X_1305_ _0650_ VGND VGND VPWR VPWR _0181_ sky130_fd_sc_hd__clkbuf_1
X_1236_ net33 net6 VGND VGND VPWR VPWR _0589_ sky130_fd_sc_hd__or2b_1
X_1098_ _0248_ _0250_ Signal_Generator_2_270phase_inst.count\[5\] VGND VGND VPWR VPWR
+ _0508_ sky130_fd_sc_hd__and3_1
X_1167_ _0553_ VGND VGND VPWR VPWR _0116_ sky130_fd_sc_hd__inv_2
XFILLER_0_15_19 VGND VGND VPWR VPWR sky130_ef_sc_hd__decap_12
X_1021_ net23 _0459_ _0467_ _0469_ VGND VGND VPWR VPWR _0470_ sky130_fd_sc_hd__a211oi_1
X_0805_ Signal_Generator_1_90phase_inst.count\[0\] Signal_Generator_1_90phase_inst.count\[1\]
+ Signal_Generator_1_90phase_inst.count\[2\] Signal_Generator_1_90phase_inst.count\[3\]
+ VGND VGND VPWR VPWR _0310_ sky130_fd_sc_hd__a31o_1
XFILLER_0_21_40 VGND VGND VPWR VPWR sky130_fd_sc_hd__fill_2
XFILLER_0_21_62 VGND VGND VPWR VPWR sky130_fd_sc_hd__fill_1
X_0736_ _0258_ VGND VGND VPWR VPWR _0157_ sky130_fd_sc_hd__clkbuf_1
X_1219_ _0556_ _0562_ _0565_ _0571_ VGND VGND VPWR VPWR _0572_ sky130_fd_sc_hd__a22o_1
XFILLER_0_1_83 VGND VGND VPWR VPWR sky130_ef_sc_hd__decap_12
Xhold41 Signal_Generator_1_180phase_inst.direction VGND VGND VPWR VPWR net66 sky130_fd_sc_hd__buf_1
Xhold30 _0177_ VGND VGND VPWR VPWR net55 sky130_fd_sc_hd__dlygate4sd3_1
Xhold52 Signal_Generator_1_270phase_inst.direction VGND VGND VPWR VPWR net77 sky130_fd_sc_hd__dlygate4sd3_1
XFILLER_0_26_18 VGND VGND VPWR VPWR sky130_fd_sc_hd__decap_8
XFILLER_0_26_29 VGND VGND VPWR VPWR sky130_fd_sc_hd__decap_6
XFILLER_0_30_197 VGND VGND VPWR VPWR sky130_fd_sc_hd__fill_2
XFILLER_0_38_253 VGND VGND VPWR VPWR sky130_ef_sc_hd__decap_12
XTAP_304 VGND VPWR sky130_fd_sc_hd__tapvpwrvgnd_1
XFILLER_0_21_164 VGND VGND VPWR VPWR sky130_fd_sc_hd__decap_4
X_1004_ _0454_ VGND VGND VPWR VPWR net17 sky130_fd_sc_hd__buf_1
X_0719_ _0215_ _0245_ _0246_ VGND VGND VPWR VPWR _0247_ sky130_fd_sc_hd__mux2_1
XFILLER_0_35_267 VGND VGND VPWR VPWR sky130_fd_sc_hd__fill_1
XFILLER_0_35_223 VGND VGND VPWR VPWR sky130_fd_sc_hd__fill_1
Xoutput20 net20 VGND VGND VPWR VPWR PMOS1_PS1 sky130_fd_sc_hd__buf_2
XFILLER_0_41_248 VGND VGND VPWR VPWR sky130_ef_sc_hd__decap_12
XFILLER_0_26_245 VGND VGND VPWR VPWR sky130_fd_sc_hd__decap_6
XTAP_123 VGND VPWR sky130_fd_sc_hd__tapvpwrvgnd_1
XTAP_112 VGND VPWR sky130_fd_sc_hd__tapvpwrvgnd_1
XTAP_101 VGND VPWR sky130_fd_sc_hd__tapvpwrvgnd_1
XTAP_134 VGND VPWR sky130_fd_sc_hd__tapvpwrvgnd_1
XTAP_145 VGND VPWR sky130_fd_sc_hd__tapvpwrvgnd_1
XTAP_156 VGND VPWR sky130_fd_sc_hd__tapvpwrvgnd_1
XTAP_167 VGND VPWR sky130_fd_sc_hd__tapvpwrvgnd_1
XTAP_178 VGND VPWR sky130_fd_sc_hd__tapvpwrvgnd_1
XTAP_189 VGND VPWR sky130_fd_sc_hd__tapvpwrvgnd_1
XFILLER_0_17_223 VGND VGND VPWR VPWR sky130_fd_sc_hd__fill_1
XFILLER_0_7_71 VGND VGND VPWR VPWR sky130_fd_sc_hd__fill_2
XFILLER_0_23_204 VGND VGND VPWR VPWR sky130_fd_sc_hd__fill_1
XFILLER_0_23_237 VGND VGND VPWR VPWR sky130_ef_sc_hd__decap_12
XFILLER_0_31_270 VGND VGND VPWR VPWR sky130_fd_sc_hd__fill_1
X_0984_ _0443_ VGND VGND VPWR VPWR Dead_Time_Generator_inst_1.clk sky130_fd_sc_hd__clkbuf_2
XFILLER_0_38_93 VGND VGND VPWR VPWR sky130_fd_sc_hd__fill_1
XFILLER_0_38_60 VGND VGND VPWR VPWR sky130_ef_sc_hd__decap_12
X_1398_ clknet_3_3__leaf_Dead_Time_Generator_inst_1.clk _0010_ _0097_ VGND VGND VPWR
+ VPWR Signal_Generator_1_0phase_inst.count\[2\] sky130_fd_sc_hd__dfrtp_4
X_1467_ clknet_3_1__leaf_Dead_Time_Generator_inst_1.clk _0190_ VGND VGND VPWR VPWR
+ Dead_Time_Generator_inst_3.count_dt\[4\] sky130_fd_sc_hd__dfxtp_1
XFILLER_0_9_220 VGND VGND VPWR VPWR sky130_fd_sc_hd__fill_1
XFILLER_0_9_264 VGND VGND VPWR VPWR sky130_fd_sc_hd__decap_6
X_1321_ Dead_Time_Generator_inst_1.dt\[1\] Dead_Time_Generator_inst_3.count_dt\[1\]
+ VGND VGND VPWR VPWR _0662_ sky130_fd_sc_hd__or2b_1
X_1252_ _0565_ _0571_ VGND VGND VPWR VPWR _0605_ sky130_fd_sc_hd__nor2_1
X_1183_ _0554_ VGND VGND VPWR VPWR _0131_ sky130_fd_sc_hd__inv_2
X_0967_ Signal_Generator_2_270phase_inst.count\[2\] _0428_ VGND VGND VPWR VPWR _0431_
+ sky130_fd_sc_hd__xor2_1
XFILLER_0_6_212 VGND VGND VPWR VPWR sky130_fd_sc_hd__fill_1
X_0898_ Signal_Generator_2_0phase_inst.count\[4\] Signal_Generator_2_0phase_inst.direction
+ _0363_ _0379_ VGND VGND VPWR VPWR _0041_ sky130_fd_sc_hd__a31o_1
XFILLER_0_4_61 VGND VGND VPWR VPWR sky130_fd_sc_hd__decap_8
XFILLER_0_45_181 VGND VGND VPWR VPWR sky130_ef_sc_hd__decap_12
XFILLER_0_36_170 VGND VGND VPWR VPWR sky130_fd_sc_hd__fill_1
X_0821_ _0319_ _0322_ VGND VGND VPWR VPWR _0021_ sky130_fd_sc_hd__nor2_1
X_0752_ net1 Shift_Register_Inst.data_out\[16\] _0269_ VGND VGND VPWR VPWR _0270_
+ sky130_fd_sc_hd__mux2_1
X_0683_ _0219_ _0220_ Shift_Register_Inst.shift_state\[1\] Shift_Register_Inst.shift_state\[0\]
+ net61 VGND VGND VPWR VPWR _0172_ sky130_fd_sc_hd__a41o_1
XFILLER_0_10_97 VGND VGND VPWR VPWR sky130_fd_sc_hd__fill_2
X_1304_ _0625_ _0626_ _0649_ VGND VGND VPWR VPWR _0650_ sky130_fd_sc_hd__and3_1
X_1235_ _0579_ _0586_ _0587_ VGND VGND VPWR VPWR _0588_ sky130_fd_sc_hd__a21o_1
XFILLER_0_19_84 VGND VGND VPWR VPWR sky130_fd_sc_hd__decap_6
X_1166_ _0553_ VGND VGND VPWR VPWR _0115_ sky130_fd_sc_hd__inv_2
X_1097_ _0248_ _0506_ Signal_Generator_2_90phase_inst.count\[5\] VGND VGND VPWR VPWR
+ _0507_ sky130_fd_sc_hd__and3_1
XFILLER_0_19_137 VGND VGND VPWR VPWR sky130_ef_sc_hd__decap_12
XFILLER_0_42_195 VGND VGND VPWR VPWR sky130_fd_sc_hd__fill_1
XFILLER_0_33_151 VGND VGND VPWR VPWR sky130_fd_sc_hd__fill_2
X_1020_ Shift_Register_Inst.data_out\[9\] Shift_Register_Inst.data_out\[10\] net16
+ _0468_ VGND VGND VPWR VPWR _0469_ sky130_fd_sc_hd__a31o_1
X_0804_ _0299_ VGND VGND VPWR VPWR _0309_ sky130_fd_sc_hd__inv_2
XFILLER_0_24_195 VGND VGND VPWR VPWR sky130_fd_sc_hd__fill_1
X_0735_ Shift_Register_Inst.data_out\[11\] net1 _0257_ VGND VGND VPWR VPWR _0258_
+ sky130_fd_sc_hd__mux2_1
X_1218_ Signal_Generator_1_0phase_inst.count\[4\] _0558_ _0566_ _0570_ VGND VGND VPWR
+ VPWR _0571_ sky130_fd_sc_hd__o22a_1
X_1149_ _0551_ VGND VGND VPWR VPWR _0100_ sky130_fd_sc_hd__inv_2
XFILLER_0_27_3 VGND VGND VPWR VPWR sky130_fd_sc_hd__decap_8
XFILLER_0_1_95 VGND VGND VPWR VPWR sky130_fd_sc_hd__fill_1
XFILLER_0_15_162 VGND VGND VPWR VPWR sky130_fd_sc_hd__decap_6
XFILLER_0_30_121 VGND VGND VPWR VPWR sky130_fd_sc_hd__decap_3
Xhold42 Shift_Register_Inst.shift_state\[0\] VGND VGND VPWR VPWR net67 sky130_fd_sc_hd__dlygate4sd3_1
Xhold31 Dead_Time_Generator_inst_3.count_dt\[4\] VGND VGND VPWR VPWR net56 sky130_fd_sc_hd__dlygate4sd3_1
Xhold20 Dead_Time_Generator_inst_1.dt\[3\] VGND VGND VPWR VPWR net45 sky130_fd_sc_hd__dlygate4sd3_1
Xhold53 _0027_ VGND VGND VPWR VPWR net78 sky130_fd_sc_hd__dlygate4sd3_1
XFILLER_0_42_29 VGND VGND VPWR VPWR sky130_fd_sc_hd__decap_8
XFILLER_0_38_265 VGND VGND VPWR VPWR sky130_fd_sc_hd__decap_6
XFILLER_0_21_110 VGND VGND VPWR VPWR sky130_fd_sc_hd__fill_2
XTAP_305 VGND VPWR sky130_fd_sc_hd__tapvpwrvgnd_1
XFILLER_0_6_29 VGND VGND VPWR VPWR sky130_ef_sc_hd__decap_12
XFILLER_0_16_85 VGND VGND VPWR VPWR sky130_fd_sc_hd__decap_3
X_1003_ _0445_ Shift_Register_Inst.data_out\[17\] NMOS2_PS1_prev VGND VGND VPWR VPWR
+ _0454_ sky130_fd_sc_hd__and3_1
XFILLER_0_44_213 VGND VGND VPWR VPWR sky130_ef_sc_hd__decap_12
XFILLER_0_29_221 VGND VGND VPWR VPWR sky130_fd_sc_hd__decap_3
XFILLER_0_32_40 VGND VGND VPWR VPWR sky130_fd_sc_hd__fill_1
X_0718_ _0233_ _0219_ Shift_Register_Inst.shift_state\[2\] VGND VGND VPWR VPWR _0246_
+ sky130_fd_sc_hd__or3b_1
XFILLER_0_7_181 VGND VGND VPWR VPWR sky130_ef_sc_hd__decap_12
Xoutput21 net21 VGND VGND VPWR VPWR PMOS1_PS2 sky130_fd_sc_hd__clkbuf_4
XTAP_124 VGND VPWR sky130_fd_sc_hd__tapvpwrvgnd_1
XTAP_113 VGND VPWR sky130_fd_sc_hd__tapvpwrvgnd_1
XTAP_102 VGND VPWR sky130_fd_sc_hd__tapvpwrvgnd_1
XTAP_135 VGND VPWR sky130_fd_sc_hd__tapvpwrvgnd_1
XTAP_146 VGND VPWR sky130_fd_sc_hd__tapvpwrvgnd_1
XTAP_157 VGND VPWR sky130_fd_sc_hd__tapvpwrvgnd_1
XTAP_168 VGND VPWR sky130_fd_sc_hd__tapvpwrvgnd_1
XTAP_179 VGND VPWR sky130_fd_sc_hd__tapvpwrvgnd_1
XFILLER_0_17_268 VGND VGND VPWR VPWR sky130_fd_sc_hd__decap_3
XFILLER_0_4_173 VGND VGND VPWR VPWR sky130_ef_sc_hd__decap_12
XFILLER_0_23_216 VGND VGND VPWR VPWR sky130_fd_sc_hd__decap_8
XFILLER_0_23_249 VGND VGND VPWR VPWR sky130_ef_sc_hd__decap_12
X_0983_ CLK_PLL CLK_EXT Shift_Register_Inst.data_out\[14\] VGND VGND VPWR VPWR _0443_
+ sky130_fd_sc_hd__mux2_2
XFILLER_0_1_198 VGND VGND VPWR VPWR sky130_fd_sc_hd__fill_1
XFILLER_0_38_72 VGND VGND VPWR VPWR sky130_ef_sc_hd__decap_12
X_1397_ clknet_3_3__leaf_Dead_Time_Generator_inst_1.clk _0009_ _0096_ VGND VGND VPWR
+ VPWR Signal_Generator_1_0phase_inst.count\[1\] sky130_fd_sc_hd__dfrtp_2
X_1466_ clknet_3_1__leaf_Dead_Time_Generator_inst_1.clk net72 VGND VGND VPWR VPWR
+ Dead_Time_Generator_inst_3.count_dt\[3\] sky130_fd_sc_hd__dfxtp_1
X_1320_ net74 VGND VGND VPWR VPWR _0661_ sky130_fd_sc_hd__inv_2
X_1182_ _0554_ VGND VGND VPWR VPWR _0130_ sky130_fd_sc_hd__inv_2
X_1251_ _0588_ _0601_ _0603_ VGND VGND VPWR VPWR _0604_ sky130_fd_sc_hd__a21o_1
XFILLER_0_24_96 VGND VGND VPWR VPWR sky130_fd_sc_hd__fill_1
X_0966_ _0056_ _0429_ _0430_ VGND VGND VPWR VPWR _0051_ sky130_fd_sc_hd__a21oi_1
XFILLER_0_6_257 VGND VGND VPWR VPWR sky130_fd_sc_hd__fill_1
X_0897_ Signal_Generator_2_0phase_inst.count\[4\] Signal_Generator_2_0phase_inst.direction
+ _0359_ Signal_Generator_2_0phase_inst.count\[5\] VGND VGND VPWR VPWR _0379_ sky130_fd_sc_hd__o31a_1
X_1449_ clknet_3_5__leaf_Dead_Time_Generator_inst_1.clk _0054_ _0148_ VGND VGND VPWR
+ VPWR Signal_Generator_2_270phase_inst.count\[4\] sky130_fd_sc_hd__dfrtp_4
XFILLER_0_10_241 VGND VGND VPWR VPWR sky130_fd_sc_hd__decap_8
XFILLER_0_45_160 VGND VGND VPWR VPWR sky130_fd_sc_hd__decap_8
XFILLER_0_37_105 VGND VGND VPWR VPWR sky130_fd_sc_hd__fill_2
XFILLER_0_45_193 VGND VGND VPWR VPWR sky130_fd_sc_hd__decap_3
XFILLER_0_45_18 VGND VGND VPWR VPWR sky130_fd_sc_hd__decap_8
XFILLER_0_28_127 VGND VGND VPWR VPWR sky130_fd_sc_hd__fill_1
XFILLER_0_28_138 VGND VGND VPWR VPWR sky130_fd_sc_hd__fill_2
X_0820_ Signal_Generator_1_180phase_inst.count\[5\] Signal_Generator_1_180phase_inst.count\[4\]
+ _0321_ VGND VGND VPWR VPWR _0322_ sky130_fd_sc_hd__and3_1
XFILLER_0_28_149 VGND VGND VPWR VPWR sky130_ef_sc_hd__decap_12
X_0751_ Shift_Register_Inst.shift_state\[0\] _0216_ Shift_Register_Inst.shift_state\[4\]
+ VGND VGND VPWR VPWR _0269_ sky130_fd_sc_hd__or3b_1
X_0682_ Shift_Register_Inst.shift_state\[2\] VGND VGND VPWR VPWR _0220_ sky130_fd_sc_hd__buf_2
X_1303_ Dead_Time_Generator_inst_2.count_dt\[1\] _0644_ VGND VGND VPWR VPWR _0649_
+ sky130_fd_sc_hd__xor2_1
X_1096_ Shift_Register_Inst.data_out\[8\] VGND VGND VPWR VPWR _0506_ sky130_fd_sc_hd__inv_2
X_1234_ _0262_ _0578_ _0573_ _0577_ VGND VGND VPWR VPWR _0587_ sky130_fd_sc_hd__o211a_1
X_1165_ _0553_ VGND VGND VPWR VPWR _0114_ sky130_fd_sc_hd__inv_2
XFILLER_0_19_149 VGND VGND VPWR VPWR sky130_fd_sc_hd__decap_4
XFILLER_0_42_163 VGND VGND VPWR VPWR sky130_fd_sc_hd__decap_4
XFILLER_0_42_141 VGND VGND VPWR VPWR sky130_fd_sc_hd__decap_4
X_0949_ _0415_ Signal_Generator_2_180phase_inst.count\[5\] Signal_Generator_2_180phase_inst.count\[4\]
+ VGND VGND VPWR VPWR _0418_ sky130_fd_sc_hd__or3b_1
XFILLER_0_25_119 VGND VGND VPWR VPWR sky130_fd_sc_hd__fill_1
X_0803_ _0295_ _0307_ VGND VGND VPWR VPWR _0308_ sky130_fd_sc_hd__nand2_1
XFILLER_0_24_141 VGND VGND VPWR VPWR sky130_ef_sc_hd__decap_12
X_0734_ _0220_ _0221_ _0219_ VGND VGND VPWR VPWR _0257_ sky130_fd_sc_hd__and3b_1
XFILLER_0_1_63 VGND VGND VPWR VPWR sky130_ef_sc_hd__decap_12
X_1079_ Dead_Time_Generator_inst_1.dt\[1\] Dead_Time_Generator_inst_4.count_dt\[1\]
+ VGND VGND VPWR VPWR _0489_ sky130_fd_sc_hd__or2b_1
X_1217_ _0567_ Signal_Generator_1_90phase_inst.count\[4\] _0568_ _0569_ VGND VGND
+ VPWR VPWR _0570_ sky130_fd_sc_hd__a211o_1
X_1148_ _0551_ VGND VGND VPWR VPWR _0099_ sky130_fd_sc_hd__inv_2
XFILLER_0_15_141 VGND VGND VPWR VPWR sky130_ef_sc_hd__decap_12
XFILLER_0_15_185 VGND VGND VPWR VPWR sky130_fd_sc_hd__fill_1
Xhold32 Signal_Generator_2_180phase_inst.count\[0\] VGND VGND VPWR VPWR net57 sky130_fd_sc_hd__dlygate4sd3_1
Xhold21 _0494_ VGND VGND VPWR VPWR net46 sky130_fd_sc_hd__dlygate4sd3_1
Xhold10 Dead_Time_Generator_inst_3.go VGND VGND VPWR VPWR net35 sky130_fd_sc_hd__dlygate4sd3_1
Xhold43 Signal_Generator_1_270phase_inst.direction VGND VGND VPWR VPWR net68 sky130_fd_sc_hd__dlygate4sd3_1
Xhold54 Shift_Register_Inst.data_out\[15\] VGND VGND VPWR VPWR net79 sky130_fd_sc_hd__dlygate4sd3_1
XTAP_306 VGND VPWR sky130_fd_sc_hd__tapvpwrvgnd_1
XFILLER_0_16_64 VGND VGND VPWR VPWR sky130_fd_sc_hd__decap_4
X_1002_ _0453_ VGND VGND VPWR VPWR net22 sky130_fd_sc_hd__dlymetal6s2s_1
XFILLER_0_44_225 VGND VGND VPWR VPWR sky130_ef_sc_hd__decap_12
XFILLER_0_32_85 VGND VGND VPWR VPWR sky130_fd_sc_hd__fill_2
XFILLER_0_32_74 VGND VGND VPWR VPWR sky130_fd_sc_hd__fill_1
XFILLER_0_12_111 VGND VGND VPWR VPWR sky130_fd_sc_hd__fill_2
X_0717_ Shift_Register_Inst.data_out\[6\] VGND VGND VPWR VPWR _0245_ sky130_fd_sc_hd__buf_2
XFILLER_0_35_203 VGND VGND VPWR VPWR sky130_ef_sc_hd__decap_12
XFILLER_0_35_225 VGND VGND VPWR VPWR sky130_ef_sc_hd__decap_12
XFILLER_0_7_193 VGND VGND VPWR VPWR sky130_fd_sc_hd__decap_4
Xoutput22 net22 VGND VGND VPWR VPWR PMOS2_PS1 sky130_fd_sc_hd__clkbuf_4
XFILLER_0_9_3 VGND VGND VPWR VPWR sky130_fd_sc_hd__decap_8
XFILLER_0_26_214 VGND VGND VPWR VPWR sky130_fd_sc_hd__fill_2
XTAP_114 VGND VPWR sky130_fd_sc_hd__tapvpwrvgnd_1
XTAP_103 VGND VPWR sky130_fd_sc_hd__tapvpwrvgnd_1
XTAP_125 VGND VPWR sky130_fd_sc_hd__tapvpwrvgnd_1
XTAP_136 VGND VPWR sky130_fd_sc_hd__tapvpwrvgnd_1
XTAP_147 VGND VPWR sky130_fd_sc_hd__tapvpwrvgnd_1
XTAP_158 VGND VPWR sky130_fd_sc_hd__tapvpwrvgnd_1
XTAP_169 VGND VPWR sky130_fd_sc_hd__tapvpwrvgnd_1
XFILLER_0_43_51 VGND VGND VPWR VPWR sky130_fd_sc_hd__decap_4
XFILLER_0_11_7 VGND VGND VPWR VPWR sky130_ef_sc_hd__decap_12
XFILLER_0_4_185 VGND VGND VPWR VPWR sky130_fd_sc_hd__decap_8
XFILLER_0_4_141 VGND VGND VPWR VPWR sky130_fd_sc_hd__fill_2
XFILLER_0_40_250 VGND VGND VPWR VPWR sky130_fd_sc_hd__fill_2
X_0982_ Signal_Generator_2_270phase_inst.count\[4\] Signal_Generator_2_270phase_inst.direction
+ _0426_ _0442_ VGND VGND VPWR VPWR _0055_ sky130_fd_sc_hd__a31o_1
XFILLER_0_13_54 VGND VGND VPWR VPWR sky130_fd_sc_hd__fill_2
XFILLER_0_13_76 VGND VGND VPWR VPWR sky130_fd_sc_hd__fill_2
XFILLER_0_14_239 VGND VGND VPWR VPWR sky130_fd_sc_hd__fill_1
X_1465_ clknet_3_1__leaf_Dead_Time_Generator_inst_1.clk _0188_ VGND VGND VPWR VPWR
+ Dead_Time_Generator_inst_3.count_dt\[2\] sky130_fd_sc_hd__dfxtp_1
X_1396_ clknet_3_3__leaf_Dead_Time_Generator_inst_1.clk _0008_ _0095_ VGND VGND VPWR
+ VPWR Signal_Generator_1_0phase_inst.count\[0\] sky130_fd_sc_hd__dfrtp_2
X_1181_ _0554_ VGND VGND VPWR VPWR _0129_ sky130_fd_sc_hd__inv_2
X_1250_ _0589_ _0594_ _0602_ VGND VGND VPWR VPWR _0603_ sky130_fd_sc_hd__o21a_1
X_0965_ _0424_ _0429_ Signal_Generator_2_270phase_inst.direction VGND VGND VPWR VPWR
+ _0430_ sky130_fd_sc_hd__a21oi_1
XFILLER_0_40_41 VGND VGND VPWR VPWR sky130_fd_sc_hd__decap_8
X_0896_ net69 _0376_ _0377_ _0361_ _0378_ VGND VGND VPWR VPWR _0040_ sky130_fd_sc_hd__a32o_1
XFILLER_0_6_269 VGND VGND VPWR VPWR sky130_fd_sc_hd__fill_2
X_1448_ clknet_3_5__leaf_Dead_Time_Generator_inst_1.clk _0053_ _0147_ VGND VGND VPWR
+ VPWR Signal_Generator_2_270phase_inst.count\[3\] sky130_fd_sc_hd__dfrtp_1
XFILLER_0_4_85 VGND VGND VPWR VPWR sky130_ef_sc_hd__decap_12
XFILLER_0_4_74 VGND VGND VPWR VPWR sky130_fd_sc_hd__decap_4
XFILLER_0_4_41 VGND VGND VPWR VPWR sky130_fd_sc_hd__fill_1
XFILLER_0_10_253 VGND VGND VPWR VPWR sky130_ef_sc_hd__decap_12
X_1379_ clknet_1_1__leaf_CLK_SR _0158_ _0079_ VGND VGND VPWR VPWR Shift_Register_Inst.data_out\[10\]
+ sky130_fd_sc_hd__dfrtp_2
XFILLER_0_37_139 VGND VGND VPWR VPWR sky130_ef_sc_hd__decap_12
XFILLER_0_10_44 VGND VGND VPWR VPWR sky130_fd_sc_hd__fill_1
XFILLER_0_10_77 VGND VGND VPWR VPWR sky130_fd_sc_hd__decap_6
X_0750_ _0268_ VGND VGND VPWR VPWR _0153_ sky130_fd_sc_hd__clkbuf_1
X_0681_ Shift_Register_Inst.shift_state\[3\] VGND VGND VPWR VPWR _0219_ sky130_fd_sc_hd__buf_2
X_1302_ _0648_ VGND VGND VPWR VPWR _0180_ sky130_fd_sc_hd__clkbuf_1
X_1233_ _0583_ _0584_ _0585_ VGND VGND VPWR VPWR _0586_ sky130_fd_sc_hd__a21o_1
XFILLER_0_19_53 VGND VGND VPWR VPWR sky130_fd_sc_hd__decap_3
X_1164_ _0481_ VGND VGND VPWR VPWR _0553_ sky130_fd_sc_hd__buf_4
X_1095_ net14 VGND VGND VPWR VPWR _0505_ sky130_fd_sc_hd__inv_2
X_0948_ _0403_ _0414_ _0417_ net62 VGND VGND VPWR VPWR _0046_ sky130_fd_sc_hd__a22o_1
XFILLER_0_42_197 VGND VGND VPWR VPWR sky130_fd_sc_hd__fill_2
X_0879_ Signal_Generator_2_0phase_inst.count\[1\] Signal_Generator_2_0phase_inst.count\[0\]
+ VGND VGND VPWR VPWR _0365_ sky130_fd_sc_hd__nor2_1
XFILLER_0_33_175 VGND VGND VPWR VPWR sky130_fd_sc_hd__decap_6
XFILLER_0_18_172 VGND VGND VPWR VPWR sky130_fd_sc_hd__fill_1
X_0802_ Signal_Generator_1_90phase_inst.count\[0\] Signal_Generator_1_90phase_inst.count\[1\]
+ Signal_Generator_1_90phase_inst.count\[2\] Signal_Generator_1_90phase_inst.count\[3\]
+ VGND VGND VPWR VPWR _0307_ sky130_fd_sc_hd__o31ai_1