*SPEF "ieee 1481-1999"
*DESIGN "Top"
*DATE "11:11:11 Fri 11 11, 1111"
*VENDOR "OpenRCX"
*PROGRAM "Parallel Extraction"
*VERSION "1.0"
*DESIGN_FLOW "NAME_SCOPE LOCAL" "PIN_CAP NONE"
*DIVIDER /
*DELIMITER :
*BUS_DELIMITER []
*T_UNIT 1 NS
*C_UNIT 1 PF
*R_UNIT 1 OHM
*L_UNIT 1 HENRY

*NAME_MAP
*1 CLK_EXT
*2 CLK_PLL
*3 CLK_SR
*4 Data_SR
*5 NMOS1_PS1
*6 NMOS1_PS2
*7 NMOS2_PS1
*8 NMOS2_PS2
*9 NMOS_PS3
*10 PMOS1_PS1
*11 PMOS1_PS2
*12 PMOS2_PS1
*13 PMOS2_PS2
*14 PMOS_PS3
*15 RST
*16 SIGNAL_OUTPUT
*19 d1[0]
*20 d1[1]
*21 d1[2]
*22 d1[3]
*23 d1[4]
*24 d1[5]
*25 d2[0]
*26 d2[1]
*27 d2[2]
*28 d2[3]
*29 d2[4]
*30 d2[5]
*31 Dead_Time_Generator_inst_1\.clk
*32 Dead_Time_Generator_inst_1\.count_dt\[0\]
*33 Dead_Time_Generator_inst_1\.count_dt\[1\]
*34 Dead_Time_Generator_inst_1\.count_dt\[2\]
*35 Dead_Time_Generator_inst_1\.count_dt\[3\]
*36 Dead_Time_Generator_inst_1\.count_dt\[4\]
*37 Dead_Time_Generator_inst_1\.dt\[0\]
*38 Dead_Time_Generator_inst_1\.dt\[1\]
*39 Dead_Time_Generator_inst_1\.dt\[2\]
*40 Dead_Time_Generator_inst_1\.dt\[3\]
*41 Dead_Time_Generator_inst_1\.dt\[4\]
*42 Dead_Time_Generator_inst_1\.go
*43 Dead_Time_Generator_inst_2\.count_dt\[0\]
*44 Dead_Time_Generator_inst_2\.count_dt\[1\]
*45 Dead_Time_Generator_inst_2\.count_dt\[2\]
*46 Dead_Time_Generator_inst_2\.count_dt\[3\]
*47 Dead_Time_Generator_inst_2\.count_dt\[4\]
*48 Dead_Time_Generator_inst_2\.go
*49 Dead_Time_Generator_inst_3\.count_dt\[0\]
*50 Dead_Time_Generator_inst_3\.count_dt\[1\]
*51 Dead_Time_Generator_inst_3\.count_dt\[2\]
*52 Dead_Time_Generator_inst_3\.count_dt\[3\]
*53 Dead_Time_Generator_inst_3\.count_dt\[4\]
*54 Dead_Time_Generator_inst_3\.go
*55 Dead_Time_Generator_inst_4\.count_dt\[0\]
*56 Dead_Time_Generator_inst_4\.count_dt\[1\]
*57 Dead_Time_Generator_inst_4\.count_dt\[2\]
*58 Dead_Time_Generator_inst_4\.count_dt\[3\]
*59 Dead_Time_Generator_inst_4\.count_dt\[4\]
*60 Dead_Time_Generator_inst_4\.go
*61 NMOS1_PS1_prev
*62 NMOS1_PS2_prev
*63 NMOS2_PS1_prev
*64 NMOS2_PS2_prev
*65 PMOS1_PS1_prev
*66 PMOS1_PS2_prev
*67 PMOS2_PS1_prev
*68 PMOS2_PS2_prev
*69 Shift_Register_Inst\.data_out\[10\]
*70 Shift_Register_Inst\.data_out\[11\]
*71 Shift_Register_Inst\.data_out\[12\]
*72 Shift_Register_Inst\.data_out\[13\]
*73 Shift_Register_Inst\.data_out\[14\]
*74 Shift_Register_Inst\.data_out\[15\]
*75 Shift_Register_Inst\.data_out\[16\]
*76 Shift_Register_Inst\.data_out\[17\]
*77 Shift_Register_Inst\.data_out\[5\]
*78 Shift_Register_Inst\.data_out\[6\]
*79 Shift_Register_Inst\.data_out\[7\]
*80 Shift_Register_Inst\.data_out\[8\]
*81 Shift_Register_Inst\.data_out\[9\]
*82 Shift_Register_Inst\.shift_state\[0\]
*83 Shift_Register_Inst\.shift_state\[1\]
*84 Shift_Register_Inst\.shift_state\[2\]
*85 Shift_Register_Inst\.shift_state\[3\]
*86 Shift_Register_Inst\.shift_state\[4\]
*87 Signal_Generator_1_0phase_inst\.count\[0\]
*88 Signal_Generator_1_0phase_inst\.count\[1\]
*89 Signal_Generator_1_0phase_inst\.count\[2\]
*90 Signal_Generator_1_0phase_inst\.count\[3\]
*91 Signal_Generator_1_0phase_inst\.count\[4\]
*92 Signal_Generator_1_0phase_inst\.count\[5\]
*93 Signal_Generator_1_0phase_inst\.direction
*94 Signal_Generator_1_180phase_inst\.count\[0\]
*95 Signal_Generator_1_180phase_inst\.count\[1\]
*96 Signal_Generator_1_180phase_inst\.count\[2\]
*97 Signal_Generator_1_180phase_inst\.count\[3\]
*98 Signal_Generator_1_180phase_inst\.count\[4\]
*99 Signal_Generator_1_180phase_inst\.count\[5\]
*100 Signal_Generator_1_180phase_inst\.direction
*101 Signal_Generator_1_270phase_inst\.count\[0\]
*102 Signal_Generator_1_270phase_inst\.count\[1\]
*103 Signal_Generator_1_270phase_inst\.count\[2\]
*104 Signal_Generator_1_270phase_inst\.count\[3\]
*105 Signal_Generator_1_270phase_inst\.count\[4\]
*106 Signal_Generator_1_270phase_inst\.count\[5\]
*107 Signal_Generator_1_270phase_inst\.direction
*108 Signal_Generator_1_90phase_inst\.count\[0\]
*109 Signal_Generator_1_90phase_inst\.count\[1\]
*110 Signal_Generator_1_90phase_inst\.count\[2\]
*111 Signal_Generator_1_90phase_inst\.count\[3\]
*112 Signal_Generator_1_90phase_inst\.count\[4\]
*113 Signal_Generator_1_90phase_inst\.count\[5\]
*114 Signal_Generator_1_90phase_inst\.direction
*115 Signal_Generator_2_0phase_inst\.count\[0\]
*116 Signal_Generator_2_0phase_inst\.count\[1\]
*117 Signal_Generator_2_0phase_inst\.count\[2\]
*118 Signal_Generator_2_0phase_inst\.count\[3\]
*119 Signal_Generator_2_0phase_inst\.count\[4\]
*120 Signal_Generator_2_0phase_inst\.count\[5\]
*121 Signal_Generator_2_0phase_inst\.direction
*122 Signal_Generator_2_180phase_inst\.count\[0\]
*123 Signal_Generator_2_180phase_inst\.count\[1\]
*124 Signal_Generator_2_180phase_inst\.count\[2\]
*125 Signal_Generator_2_180phase_inst\.count\[3\]
*126 Signal_Generator_2_180phase_inst\.count\[4\]
*127 Signal_Generator_2_180phase_inst\.count\[5\]
*128 Signal_Generator_2_180phase_inst\.direction
*129 Signal_Generator_2_270phase_inst\.count\[0\]
*130 Signal_Generator_2_270phase_inst\.count\[1\]
*131 Signal_Generator_2_270phase_inst\.count\[2\]
*132 Signal_Generator_2_270phase_inst\.count\[3\]
*133 Signal_Generator_2_270phase_inst\.count\[4\]
*134 Signal_Generator_2_270phase_inst\.count\[5\]
*135 Signal_Generator_2_270phase_inst\.direction
*136 Signal_Generator_2_90phase_inst\.count\[0\]
*137 Signal_Generator_2_90phase_inst\.count\[1\]
*138 Signal_Generator_2_90phase_inst\.count\[2\]
*139 Signal_Generator_2_90phase_inst\.count\[3\]
*140 Signal_Generator_2_90phase_inst\.count\[4\]
*141 Signal_Generator_2_90phase_inst\.count\[5\]
*142 Signal_Generator_2_90phase_inst\.direction
*143 _0000_
*144 _0001_
*145 _0002_
*146 _0003_
*147 _0004_
*148 _0005_
*149 _0006_
*150 _0007_
*151 _0008_
*152 _0009_
*153 _0010_
*154 _0011_
*155 _0012_
*156 _0013_
*157 _0014_
*158 _0015_
*159 _0016_
*160 _0017_
*161 _0018_
*162 _0019_
*163 _0020_
*164 _0021_
*165 _0022_
*166 _0023_
*167 _0024_
*168 _0025_
*169 _0026_
*170 _0027_
*171 _0028_
*172 _0029_
*173 _0030_
*174 _0031_
*175 _0032_
*176 _0033_
*177 _0034_
*178 _0035_
*179 _0036_
*180 _0037_
*181 _0038_
*182 _0039_
*183 _0040_
*184 _0041_
*185 _0042_
*186 _0043_
*187 _0044_
*188 _0045_
*189 _0046_
*190 _0047_
*191 _0048_
*192 _0049_
*193 _0050_
*194 _0051_
*195 _0052_
*196 _0053_
*197 _0054_
*198 _0055_
*199 _0056_
*200 _0057_
*201 _0058_
*202 _0059_
*203 _0060_
*204 _0061_
*205 _0062_
*206 _0063_
*207 _0064_
*208 _0065_
*209 _0066_
*210 _0067_
*211 _0068_
*212 _0069_
*213 _0070_
*214 _0071_
*215 _0072_
*216 _0073_
*217 _0074_
*218 _0075_
*219 _0076_
*220 _0077_
*221 _0078_
*222 _0079_
*223 _0080_
*224 _0081_
*225 _0082_
*226 _0083_
*227 _0084_
*228 _0085_
*229 _0086_
*230 _0087_
*231 _0088_
*232 _0089_
*233 _0090_
*234 _0091_
*235 _0092_
*236 _0093_
*237 _0094_
*238 _0095_
*239 _0096_
*240 _0097_
*241 _0098_
*242 _0099_
*243 _0100_
*244 _0101_
*245 _0102_
*246 _0103_
*247 _0104_
*248 _0105_
*249 _0106_
*250 _0107_
*251 _0108_
*252 _0109_
*253 _0110_
*254 _0111_
*255 _0112_
*256 _0113_
*257 _0114_
*258 _0115_
*259 _0116_
*260 _0117_
*261 _0118_
*262 _0119_
*263 _0120_
*264 _0121_
*265 _0122_
*266 _0123_
*267 _0124_
*268 _0125_
*269 _0126_
*270 _0127_
*271 _0128_
*272 _0129_
*273 _0130_
*274 _0131_
*275 _0132_
*276 _0133_
*277 _0134_
*278 _0135_
*279 _0136_
*280 _0137_
*281 _0138_
*282 _0139_
*283 _0140_
*284 _0141_
*285 _0142_
*286 _0143_
*287 _0144_
*288 _0145_
*289 _0146_
*290 _0147_
*291 _0148_
*292 _0149_
*293 _0150_
*294 _0151_
*295 _0152_
*296 _0153_
*297 _0154_
*298 _0155_
*299 _0156_
*300 _0157_
*301 _0158_
*302 _0159_
*303 _0160_
*304 _0161_
*305 _0162_
*306 _0163_
*307 _0164_
*308 _0165_
*309 _0166_
*310 _0167_
*311 _0168_
*312 _0169_
*313 _0170_
*314 _0171_
*315 _0172_
*316 _0173_
*317 _0174_
*318 _0175_
*319 _0176_
*320 _0177_
*321 _0178_
*322 _0179_
*323 _0180_
*324 _0181_
*325 _0182_
*326 _0183_
*327 _0184_
*328 _0185_
*329 _0186_
*330 _0187_
*331 _0188_
*332 _0189_
*333 _0190_
*334 _0191_
*335 _0192_
*336 _0193_
*337 _0194_
*338 _0195_
*339 _0196_
*340 _0197_
*341 _0198_
*342 _0199_
*343 _0200_
*344 _0201_
*345 _0202_
*346 _0203_
*347 _0204_
*348 _0205_
*349 _0206_
*350 _0207_
*351 _0208_
*352 _0209_
*353 _0210_
*354 _0211_
*355 _0212_
*356 _0213_
*357 _0214_
*358 _0215_
*359 _0216_
*360 _0217_
*361 _0218_
*362 _0219_
*363 _0220_
*364 _0221_
*365 _0222_
*366 _0223_
*367 _0224_
*368 _0225_
*369 _0226_
*370 _0227_
*371 _0228_
*372 _0229_
*373 _0230_
*374 _0231_
*375 _0232_
*376 _0233_
*377 _0234_
*378 _0235_
*379 _0236_
*380 _0237_
*381 _0238_
*382 _0239_
*383 _0240_
*384 _0241_
*385 _0242_
*386 _0243_
*387 _0244_
*388 _0245_
*389 _0246_
*390 _0247_
*391 _0248_
*392 _0249_
*393 _0250_
*394 _0251_
*395 _0252_
*396 _0253_
*397 _0254_
*398 _0255_
*399 _0256_
*400 _0257_
*401 _0258_
*402 _0259_
*403 _0260_
*404 _0261_
*405 _0262_
*406 _0263_
*407 _0264_
*408 _0265_
*409 _0266_
*410 _0267_
*411 _0268_
*412 _0269_
*413 _0270_
*414 _0271_
*415 _0272_
*416 _0273_
*417 _0274_
*418 _0275_
*419 _0276_
*420 _0277_
*421 _0278_
*422 _0279_
*423 _0280_
*424 _0281_
*425 _0282_
*426 _0283_
*427 _0284_
*428 _0285_
*429 _0286_
*430 _0287_
*431 _0288_
*432 _0289_
*433 _0290_
*434 _0291_
*435 _0292_
*436 _0293_
*437 _0294_
*438 _0295_
*439 _0296_
*440 _0297_
*441 _0298_
*442 _0299_
*443 _0300_
*444 _0301_
*445 _0302_
*446 _0303_
*447 _0304_
*448 _0305_
*449 _0306_
*450 _0307_
*451 _0308_
*452 _0309_
*453 _0310_
*454 _0311_
*455 _0312_
*456 _0313_
*457 _0314_
*458 _0315_
*459 _0316_
*460 _0317_
*461 _0318_
*462 _0319_
*463 _0320_
*464 _0321_
*465 _0322_
*466 _0323_
*467 _0324_
*468 _0325_
*469 _0326_
*470 _0327_
*471 _0328_
*472 _0329_
*473 _0330_
*474 _0331_
*475 _0332_
*476 _0333_
*477 _0334_
*478 _0335_
*479 _0336_
*480 _0337_
*481 _0338_
*482 _0339_
*483 _0340_
*484 _0341_
*485 _0342_
*486 _0343_
*487 _0344_
*488 _0345_
*489 _0346_
*490 _0347_
*491 _0348_
*492 _0349_
*493 _0350_
*494 _0351_
*495 _0352_
*496 _0353_
*497 _0354_
*498 _0355_
*499 _0356_
*500 _0357_
*501 _0358_
*502 _0359_
*503 _0360_
*504 _0361_
*505 _0362_
*506 _0363_
*507 _0364_
*508 _0365_
*509 _0366_
*510 _0367_
*511 _0368_
*512 _0369_
*513 _0370_
*514 _0371_
*515 _0372_
*516 _0373_
*517 _0374_
*518 _0375_
*519 _0376_
*520 _0377_
*521 _0378_
*522 _0379_
*523 _0380_
*524 _0381_
*525 _0382_
*526 _0383_
*527 _0384_
*528 _0385_
*529 _0386_
*530 _0387_
*531 _0388_
*532 _0389_
*533 _0390_
*534 _0391_
*535 _0392_
*536 _0393_
*537 _0394_
*538 _0395_
*539 _0396_
*540 _0397_
*541 _0398_
*542 _0399_
*543 _0400_
*544 _0401_
*545 _0402_
*546 _0403_
*547 _0404_
*548 _0405_
*549 _0406_
*550 _0407_
*551 _0408_
*552 _0409_
*553 _0410_
*554 _0411_
*555 _0412_
*556 _0413_
*557 _0414_
*558 _0415_
*559 _0416_
*560 _0417_
*561 _0418_
*562 _0419_
*563 _0420_
*564 _0421_
*565 _0422_
*566 _0423_
*567 _0424_
*568 _0425_
*569 _0426_
*570 _0427_
*571 _0428_
*572 _0429_
*573 _0430_
*574 _0431_
*575 _0432_
*576 _0433_
*577 _0434_
*578 _0435_
*579 _0436_
*580 _0437_
*581 _0438_
*582 _0439_
*583 _0440_
*584 _0441_
*585 _0442_
*586 _0443_
*587 _0444_
*588 _0445_
*589 _0446_
*590 _0447_
*591 _0448_
*592 _0449_
*593 _0450_
*594 _0451_
*595 _0452_
*596 _0453_
*597 _0454_
*598 _0455_
*599 _0456_
*600 _0457_
*601 _0458_
*602 _0459_
*603 _0460_
*604 _0461_
*605 _0462_
*606 _0463_
*607 _0464_
*608 _0465_
*609 _0466_
*610 _0467_
*611 _0468_
*612 _0469_
*613 _0470_
*614 _0471_
*615 _0472_
*616 _0473_
*617 _0474_
*618 _0475_
*619 _0476_
*620 _0477_
*621 _0478_
*622 _0479_
*623 _0480_
*624 _0481_
*625 _0482_
*626 _0483_
*627 _0484_
*628 _0485_
*629 _0486_
*630 _0487_
*631 _0488_
*632 _0489_
*633 _0490_
*634 _0491_
*635 _0492_
*636 _0493_
*637 _0494_
*638 _0495_
*639 _0496_
*640 _0497_
*641 _0498_
*642 _0499_
*643 _0500_
*644 _0501_
*645 _0502_
*646 _0503_
*647 _0504_
*648 _0505_
*649 _0506_
*650 _0507_
*651 _0508_
*652 _0509_
*653 _0510_
*654 _0511_
*655 _0512_
*656 _0513_
*657 _0514_
*658 _0515_
*659 _0516_
*660 _0517_
*661 _0518_
*662 _0519_
*663 _0520_
*664 _0521_
*665 _0522_
*666 _0523_
*667 _0524_
*668 _0525_
*669 _0526_
*670 _0527_
*671 _0528_
*672 _0529_
*673 _0530_
*674 _0531_
*675 _0532_
*676 _0533_
*677 _0534_
*678 _0535_
*679 _0536_
*680 _0537_
*681 _0538_
*682 _0539_
*683 _0540_
*684 _0541_
*685 _0542_
*686 _0543_
*687 _0544_
*688 _0545_
*689 _0546_
*690 _0547_
*691 _0548_
*692 _0549_
*693 _0550_
*694 _0551_
*695 _0552_
*696 _0553_
*697 _0554_
*698 _0555_
*699 _0556_
*700 _0557_
*701 _0558_
*702 _0559_
*703 _0560_
*704 _0561_
*705 _0562_
*706 _0563_
*707 _0564_
*708 _0565_
*709 _0566_
*710 _0567_
*711 _0568_
*712 _0569_
*713 _0570_
*714 _0571_
*715 _0572_
*716 _0573_
*717 _0574_
*718 _0575_
*719 _0576_
*720 _0577_
*721 _0578_
*722 _0579_
*723 _0580_
*724 _0581_
*725 _0582_
*726 _0583_
*727 _0584_
*728 _0585_
*729 _0586_
*730 _0587_
*731 _0588_
*732 _0589_
*733 _0590_
*734 _0591_
*735 _0592_
*736 _0593_
*737 _0594_
*738 _0595_
*739 _0596_
*740 _0597_
*741 _0598_
*742 _0599_
*743 _0600_
*744 _0601_
*745 _0602_
*746 _0603_
*747 _0604_
*748 _0605_
*749 _0606_
*750 _0607_
*751 _0608_
*752 _0609_
*753 _0610_
*754 _0611_
*755 _0612_
*756 _0613_
*757 _0614_
*758 _0615_
*759 _0616_
*760 _0617_
*761 _0618_
*762 _0619_
*763 _0620_
*764 _0621_
*765 _0622_
*766 _0623_
*767 _0624_
*768 _0625_
*769 _0626_
*770 _0627_
*771 _0628_
*772 _0629_
*773 _0630_
*774 _0631_
*775 _0632_
*776 _0633_
*777 _0634_
*778 _0635_
*779 _0636_
*780 _0637_
*781 _0638_
*782 _0639_
*783 _0640_
*784 _0641_
*785 _0642_
*786 _0643_
*787 _0644_
*788 _0645_
*789 _0646_
*790 _0647_
*791 _0648_
*792 _0649_
*793 _0650_
*794 _0651_
*795 _0652_
*796 _0653_
*797 _0654_
*798 _0655_
*799 _0656_
*800 _0657_
*801 _0658_
*802 _0659_
*803 _0660_
*804 _0661_
*805 _0662_
*806 _0663_
*807 _0664_
*808 _0665_
*809 _0666_
*810 _0667_
*811 _0668_
*812 _0669_
*813 _0670_
*814 _0671_
*815 _0672_
*816 _0673_
*817 _0674_
*818 _0675_
*819 clknet_0_CLK_SR
*820 clknet_0_Dead_Time_Generator_inst_1\.clk
*821 clknet_1_0__leaf_CLK_SR
*822 clknet_1_1__leaf_CLK_SR
*823 clknet_3_0__leaf_Dead_Time_Generator_inst_1\.clk
*824 clknet_3_1__leaf_Dead_Time_Generator_inst_1\.clk
*825 clknet_3_2__leaf_Dead_Time_Generator_inst_1\.clk
*826 clknet_3_3__leaf_Dead_Time_Generator_inst_1\.clk
*827 clknet_3_4__leaf_Dead_Time_Generator_inst_1\.clk
*828 clknet_3_5__leaf_Dead_Time_Generator_inst_1\.clk
*829 clknet_3_6__leaf_Dead_Time_Generator_inst_1\.clk
*830 clknet_3_7__leaf_Dead_Time_Generator_inst_1\.clk
*831 net1
*832 net10
*833 net11
*834 net12
*835 net13
*836 net14
*837 net15
*838 net16
*839 net17
*840 net18
*841 net19
*842 net2
*843 net20
*844 net21
*845 net22
*846 net23
*847 net24
*848 net25
*849 net3
*850 net30
*851 net31
*852 net32
*853 net33
*854 net34
*855 net35
*856 net36
*857 net37
*858 net38
*859 net39
*860 net4
*861 net40
*862 net41
*863 net42
*864 net43
*865 net44
*866 net45
*867 net46
*868 net47
*869 net48
*870 net49
*871 net5
*872 net50
*873 net51
*874 net52
*875 net53
*876 net54
*877 net55
*878 net56
*879 net57
*880 net58
*881 net59
*882 net6
*883 net60
*884 net61
*885 net62
*886 net63
*887 net64
*888 net65
*889 net66
*890 net67
*891 net68
*892 net69
*893 net7
*894 net70
*895 net71
*896 net72
*897 net73
*898 net74
*899 net75
*900 net76
*901 net77
*902 net78
*903 net79
*904 net8
*905 net80
*906 net81
*907 net82
*908 net83
*909 net84
*910 net85
*911 net86
*912 net9
*913 ANTENNA_1
*914 ANTENNA_2
*915 FILLER_0_0_109
*916 FILLER_0_0_113
*917 FILLER_0_0_118
*918 FILLER_0_0_12
*919 FILLER_0_0_130
*920 FILLER_0_0_136
*921 FILLER_0_0_141
*922 FILLER_0_0_153
*923 FILLER_0_0_160
*924 FILLER_0_0_169
*925 FILLER_0_0_181
*926 FILLER_0_0_193
*927 FILLER_0_0_197
*928 FILLER_0_0_205
*929 FILLER_0_0_212
*930 FILLER_0_0_225
*931 FILLER_0_0_237
*932 FILLER_0_0_24
*933 FILLER_0_0_245
*934 FILLER_0_0_251
*935 FILLER_0_0_253
*936 FILLER_0_0_29
*937 FILLER_0_0_34
*938 FILLER_0_0_46
*939 FILLER_0_0_52
*940 FILLER_0_0_57
*941 FILLER_0_0_69
*942 FILLER_0_0_76
*943 FILLER_0_0_85
*944 FILLER_0_0_97
*945 FILLER_0_10_102
*946 FILLER_0_10_114
*947 FILLER_0_10_126
*948 FILLER_0_10_141
*949 FILLER_0_10_149
*950 FILLER_0_10_15
*951 FILLER_0_10_192
*952 FILLER_0_10_203
*953 FILLER_0_10_215
*954 FILLER_0_10_227
*955 FILLER_0_10_241
*956 FILLER_0_10_249
*957 FILLER_0_10_253
*958 FILLER_0_10_265
*959 FILLER_0_10_3
*960 FILLER_0_10_40
*961 FILLER_0_10_44
*962 FILLER_0_10_57
*963 FILLER_0_10_69
*964 FILLER_0_10_73
*965 FILLER_0_10_77
*966 FILLER_0_10_83
*967 FILLER_0_10_85
*968 FILLER_0_10_97
*969 FILLER_0_11_104
*970 FILLER_0_11_125
*971 FILLER_0_11_142
*972 FILLER_0_11_154
*973 FILLER_0_11_158
*974 FILLER_0_11_166
*975 FILLER_0_11_175
*976 FILLER_0_11_181
*977 FILLER_0_11_19
*978 FILLER_0_11_191
*979 FILLER_0_11_203
*980 FILLER_0_11_215
*981 FILLER_0_11_223
*982 FILLER_0_11_236
*983 FILLER_0_11_263
*984 FILLER_0_11_27
*985 FILLER_0_11_34
*986 FILLER_0_11_38
*987 FILLER_0_11_53
*988 FILLER_0_11_57
*989 FILLER_0_11_69
*990 FILLER_0_11_7
*991 FILLER_0_11_75
*992 FILLER_0_11_92
*993 FILLER_0_12_111
*994 FILLER_0_12_126
*995 FILLER_0_12_136
*996 FILLER_0_12_147
*997 FILLER_0_12_170
*998 FILLER_0_12_178
*999 FILLER_0_12_18
*1000 FILLER_0_12_195
*1001 FILLER_0_12_200
*1002 FILLER_0_12_235
*1003 FILLER_0_12_247
*1004 FILLER_0_12_251
*1005 FILLER_0_12_256
*1006 FILLER_0_12_268
*1007 FILLER_0_12_3
*1008 FILLER_0_12_35
*1009 FILLER_0_12_65
*1010 FILLER_0_12_77
*1011 FILLER_0_12_83
*1012 FILLER_0_12_85
*1013 FILLER_0_12_9
*1014 FILLER_0_12_91
*1015 FILLER_0_13_103
*1016 FILLER_0_13_111
*1017 FILLER_0_13_125
*1018 FILLER_0_13_147
*1019 FILLER_0_13_157
*1020 FILLER_0_13_165
*1021 FILLER_0_13_201
*1022 FILLER_0_13_223
*1023 FILLER_0_13_232
*1024 FILLER_0_13_267
*1025 FILLER_0_13_28
*1026 FILLER_0_13_3
*1027 FILLER_0_13_54
*1028 FILLER_0_13_76
*1029 FILLER_0_14_101
*1030 FILLER_0_14_109
*1031 FILLER_0_14_119
*1032 FILLER_0_14_129
*1033 FILLER_0_14_138
*1034 FILLER_0_14_147
*1035 FILLER_0_14_155
*1036 FILLER_0_14_168
*1037 FILLER_0_14_173
*1038 FILLER_0_14_183
*1039 FILLER_0_14_187
*1040 FILLER_0_14_193
*1041 FILLER_0_14_202
*1042 FILLER_0_14_239
*1043 FILLER_0_14_266
*1044 FILLER_0_14_270
*1045 FILLER_0_14_29
*1046 FILLER_0_14_3
*1047 FILLER_0_14_41
*1048 FILLER_0_14_73
*1049 FILLER_0_14_81
*1050 FILLER_0_14_85
*1051 FILLER_0_14_89
*1052 FILLER_0_15_100
*1053 FILLER_0_15_11
*1054 FILLER_0_15_117
*1055 FILLER_0_15_129
*1056 FILLER_0_15_141
*1057 FILLER_0_15_153
*1058 FILLER_0_15_162
*1059 FILLER_0_15_169
*1060 FILLER_0_15_181
*1061 FILLER_0_15_185
*1062 FILLER_0_15_19
*1063 FILLER_0_15_202
*1064 FILLER_0_15_214
*1065 FILLER_0_15_231
*1066 FILLER_0_15_243
*1067 FILLER_0_15_262
*1068 FILLER_0_15_270
*1069 FILLER_0_15_3
*1070 FILLER_0_15_31
*1071 FILLER_0_15_43
*1072 FILLER_0_15_47
*1073 FILLER_0_15_62
*1074 FILLER_0_15_74
*1075 FILLER_0_15_88
*1076 FILLER_0_16_109
*1077 FILLER_0_16_122
*1078 FILLER_0_16_134
*1079 FILLER_0_16_141
*1080 FILLER_0_16_15
*1081 FILLER_0_16_152
*1082 FILLER_0_16_161
*1083 FILLER_0_16_173
*1084 FILLER_0_16_191
*1085 FILLER_0_16_195
*1086 FILLER_0_16_204
*1087 FILLER_0_16_212
*1088 FILLER_0_16_238
*1089 FILLER_0_16_244
*1090 FILLER_0_16_257
*1091 FILLER_0_16_269
*1092 FILLER_0_16_27
*1093 FILLER_0_16_3
*1094 FILLER_0_16_32
*1095 FILLER_0_16_64
*1096 FILLER_0_16_85
*1097 FILLER_0_17_119
*1098 FILLER_0_17_133
*1099 FILLER_0_17_141
*1100 FILLER_0_17_167
*1101 FILLER_0_17_169
*1102 FILLER_0_17_195
*1103 FILLER_0_17_207
*1104 FILLER_0_17_22
*1105 FILLER_0_17_223
*1106 FILLER_0_17_237
*1107 FILLER_0_17_268
*1108 FILLER_0_17_28
*1109 FILLER_0_17_3
*1110 FILLER_0_17_32
*1111 FILLER_0_17_41
*1112 FILLER_0_17_52
*1113 FILLER_0_17_64
*1114 FILLER_0_17_79
*1115 FILLER_0_18_137
*1116 FILLER_0_18_141
*1117 FILLER_0_18_149
*1118 FILLER_0_18_154
*1119 FILLER_0_18_172
*1120 FILLER_0_18_176
*1121 FILLER_0_18_188
*1122 FILLER_0_18_197
*1123 FILLER_0_18_209
*1124 FILLER_0_18_236
*1125 FILLER_0_18_248
*1126 FILLER_0_18_256
*1127 FILLER_0_18_268
*1128 FILLER_0_18_27
*1129 FILLER_0_18_3
*1130 FILLER_0_18_37
*1131 FILLER_0_18_50
*1132 FILLER_0_18_85
*1133 FILLER_0_18_97
*1134 FILLER_0_19_111
*1135 FILLER_0_19_137
*1136 FILLER_0_19_149
*1137 FILLER_0_19_153
*1138 FILLER_0_19_157
*1139 FILLER_0_19_165
*1140 FILLER_0_19_183
*1141 FILLER_0_19_189
*1142 FILLER_0_19_197
*1143 FILLER_0_19_209
*1144 FILLER_0_19_225
*1145 FILLER_0_19_241
*1146 FILLER_0_19_253
*1147 FILLER_0_19_265
*1148 FILLER_0_19_27
*1149 FILLER_0_19_53
*1150 FILLER_0_19_84
*1151 FILLER_0_19_9
*1152 FILLER_0_19_90
*1153 FILLER_0_1_113
*1154 FILLER_0_1_125
*1155 FILLER_0_1_147
*1156 FILLER_0_1_15
*1157 FILLER_0_1_159
*1158 FILLER_0_1_190
*1159 FILLER_0_1_198
*1160 FILLER_0_1_212
*1161 FILLER_0_1_218
*1162 FILLER_0_1_222
*1163 FILLER_0_1_225
*1164 FILLER_0_1_237
*1165 FILLER_0_1_249
*1166 FILLER_0_1_261
*1167 FILLER_0_1_269
*1168 FILLER_0_1_27
*1169 FILLER_0_1_3
*1170 FILLER_0_1_55
*1171 FILLER_0_1_63
*1172 FILLER_0_1_75
*1173 FILLER_0_1_79
*1174 FILLER_0_1_83
*1175 FILLER_0_1_95
*1176 FILLER_0_20_108
*1177 FILLER_0_20_118
*1178 FILLER_0_20_125
*1179 FILLER_0_20_130
*1180 FILLER_0_20_138
*1181 FILLER_0_20_15
*1182 FILLER_0_20_212
*1183 FILLER_0_20_234
*1184 FILLER_0_20_246
*1185 FILLER_0_20_253
*1186 FILLER_0_20_265
*1187 FILLER_0_20_27
*1188 FILLER_0_20_3
*1189 FILLER_0_20_66
*1190 FILLER_0_20_73
*1191 FILLER_0_20_81
*1192 FILLER_0_20_85
*1193 FILLER_0_20_97
*1194 FILLER_0_21_110
*1195 FILLER_0_21_113
*1196 FILLER_0_21_140
*1197 FILLER_0_21_15
*1198 FILLER_0_21_152
*1199 FILLER_0_21_164
*1200 FILLER_0_21_169
*1201 FILLER_0_21_178
*1202 FILLER_0_21_191
*1203 FILLER_0_21_214
*1204 FILLER_0_21_222
*1205 FILLER_0_21_225
*1206 FILLER_0_21_237
*1207 FILLER_0_21_249
*1208 FILLER_0_21_261
*1209 FILLER_0_21_269
*1210 FILLER_0_21_27
*1211 FILLER_0_21_3
*1212 FILLER_0_21_33
*1213 FILLER_0_21_40
*1214 FILLER_0_21_46
*1215 FILLER_0_21_57
*1216 FILLER_0_21_62
*1217 FILLER_0_21_71
*1218 FILLER_0_21_79
*1219 FILLER_0_21_99
*1220 FILLER_0_22_116
*1221 FILLER_0_22_149
*1222 FILLER_0_22_15
*1223 FILLER_0_22_156
*1224 FILLER_0_22_195
*1225 FILLER_0_22_220
*1226 FILLER_0_22_232
*1227 FILLER_0_22_244
*1228 FILLER_0_22_253
*1229 FILLER_0_22_265
*1230 FILLER_0_22_27
*1231 FILLER_0_22_29
*1232 FILLER_0_22_3
*1233 FILLER_0_22_44
*1234 FILLER_0_22_48
*1235 FILLER_0_22_52
*1236 FILLER_0_22_56
*1237 FILLER_0_22_60
*1238 FILLER_0_23_109
*1239 FILLER_0_23_121
*1240 FILLER_0_23_165
*1241 FILLER_0_23_174
*1242 FILLER_0_23_180
*1243 FILLER_0_23_187
*1244 FILLER_0_23_196
*1245 FILLER_0_23_204
*1246 FILLER_0_23_211
*1247 FILLER_0_23_216
*1248 FILLER_0_23_225
*1249 FILLER_0_23_23
*1250 FILLER_0_23_237
*1251 FILLER_0_23_249
*1252 FILLER_0_23_261
*1253 FILLER_0_23_269
*1254 FILLER_0_23_31
*1255 FILLER_0_23_77
*1256 FILLER_0_24_103
*1257 FILLER_0_24_115
*1258 FILLER_0_24_120
*1259 FILLER_0_24_132
*1260 FILLER_0_24_138
*1261 FILLER_0_24_141
*1262 FILLER_0_24_153
*1263 FILLER_0_24_160
*1264 FILLER_0_24_182
*1265 FILLER_0_24_187
*1266 FILLER_0_24_195
*1267 FILLER_0_24_203
*1268 FILLER_0_24_230
*1269 FILLER_0_24_242
*1270 FILLER_0_24_25
*1271 FILLER_0_24_250
*1272 FILLER_0_24_253
*1273 FILLER_0_24_265
*1274 FILLER_0_24_3
*1275 FILLER_0_24_38
*1276 FILLER_0_24_44
*1277 FILLER_0_24_77
*1278 FILLER_0_24_83
*1279 FILLER_0_24_96
*1280 FILLER_0_25_103
*1281 FILLER_0_25_111
*1282 FILLER_0_25_113
*1283 FILLER_0_25_119
*1284 FILLER_0_25_127
*1285 FILLER_0_25_135
*1286 FILLER_0_25_147
*1287 FILLER_0_25_159
*1288 FILLER_0_25_167
*1289 FILLER_0_25_169
*1290 FILLER_0_25_223
*1291 FILLER_0_25_229
*1292 FILLER_0_25_23
*1293 FILLER_0_25_241
*1294 FILLER_0_25_253
*1295 FILLER_0_25_265
*1296 FILLER_0_25_3
*1297 FILLER_0_25_33
*1298 FILLER_0_25_41
*1299 FILLER_0_25_51
*1300 FILLER_0_25_55
*1301 FILLER_0_25_66
*1302 FILLER_0_25_80
*1303 FILLER_0_25_92
*1304 FILLER_0_25_98
*1305 FILLER_0_26_144
*1306 FILLER_0_26_156
*1307 FILLER_0_26_168
*1308 FILLER_0_26_174
*1309 FILLER_0_26_178
*1310 FILLER_0_26_18
*1311 FILLER_0_26_190
*1312 FILLER_0_26_197
*1313 FILLER_0_26_214
*1314 FILLER_0_26_220
*1315 FILLER_0_26_245
*1316 FILLER_0_26_251
*1317 FILLER_0_26_253
*1318 FILLER_0_26_26
*1319 FILLER_0_26_265
*1320 FILLER_0_26_29
*1321 FILLER_0_26_57
*1322 FILLER_0_26_6
*1323 FILLER_0_26_63
*1324 FILLER_0_26_88
*1325 FILLER_0_27_108
*1326 FILLER_0_27_120
*1327 FILLER_0_27_132
*1328 FILLER_0_27_138
*1329 FILLER_0_27_144
*1330 FILLER_0_27_152
*1331 FILLER_0_27_164
*1332 FILLER_0_27_17
*1333 FILLER_0_27_190
*1334 FILLER_0_27_198
*1335 FILLER_0_27_206
*1336 FILLER_0_27_223
*1337 FILLER_0_27_225
*1338 FILLER_0_27_250
*1339 FILLER_0_27_262
*1340 FILLER_0_27_266
*1341 FILLER_0_27_29
*1342 FILLER_0_27_3
*1343 FILLER_0_27_35
*1344 FILLER_0_27_69
*1345 FILLER_0_27_91
*1346 FILLER_0_28_127
*1347 FILLER_0_28_138
*1348 FILLER_0_28_149
*1349 FILLER_0_28_161
*1350 FILLER_0_28_169
*1351 FILLER_0_28_177
*1352 FILLER_0_28_186
*1353 FILLER_0_28_194
*1354 FILLER_0_28_197
*1355 FILLER_0_28_205
*1356 FILLER_0_28_211
*1357 FILLER_0_28_224
*1358 FILLER_0_28_232
*1359 FILLER_0_28_237
*1360 FILLER_0_28_246
*1361 FILLER_0_28_253
*1362 FILLER_0_28_26
*1363 FILLER_0_28_265
*1364 FILLER_0_28_69
*1365 FILLER_0_28_88
*1366 FILLER_0_29_101
*1367 FILLER_0_29_125
*1368 FILLER_0_29_14
*1369 FILLER_0_29_150
*1370 FILLER_0_29_162
*1371 FILLER_0_29_186
*1372 FILLER_0_29_198
*1373 FILLER_0_29_202
*1374 FILLER_0_29_208
*1375 FILLER_0_29_221
*1376 FILLER_0_29_225
*1377 FILLER_0_29_237
*1378 FILLER_0_29_249
*1379 FILLER_0_29_25
*1380 FILLER_0_29_257
*1381 FILLER_0_29_263
*1382 FILLER_0_29_3
*1383 FILLER_0_29_89
*1384 FILLER_0_2_117
*1385 FILLER_0_2_15
*1386 FILLER_0_2_152
*1387 FILLER_0_2_187
*1388 FILLER_0_2_239
*1389 FILLER_0_2_246
*1390 FILLER_0_2_253
*1391 FILLER_0_2_265
*1392 FILLER_0_2_27
*1393 FILLER_0_2_29
*1394 FILLER_0_2_3
*1395 FILLER_0_2_37
*1396 FILLER_0_2_70
*1397 FILLER_0_2_83
*1398 FILLER_0_30_103
*1399 FILLER_0_30_109
*1400 FILLER_0_30_11
*1401 FILLER_0_30_121
*1402 FILLER_0_30_138
*1403 FILLER_0_30_149
*1404 FILLER_0_30_157
*1405 FILLER_0_30_16
*1406 FILLER_0_30_192
*1407 FILLER_0_30_197
*1408 FILLER_0_30_226
*1409 FILLER_0_30_251
*1410 FILLER_0_30_253
*1411 FILLER_0_30_265
*1412 FILLER_0_30_29
*1413 FILLER_0_30_3
*1414 FILLER_0_30_41
*1415 FILLER_0_30_72
*1416 FILLER_0_30_85
*1417 FILLER_0_30_93
*1418 FILLER_0_31_141
*1419 FILLER_0_31_153
*1420 FILLER_0_31_157
*1421 FILLER_0_31_198
*1422 FILLER_0_31_223
*1423 FILLER_0_31_233
*1424 FILLER_0_31_242
*1425 FILLER_0_31_254
*1426 FILLER_0_31_266
*1427 FILLER_0_31_270
*1428 FILLER_0_31_28
*1429 FILLER_0_31_41
*1430 FILLER_0_31_53
*1431 FILLER_0_31_60
*1432 FILLER_0_31_72
*1433 FILLER_0_31_78
*1434 FILLER_0_31_82
*1435 FILLER_0_31_88
*1436 FILLER_0_32_11
*1437 FILLER_0_32_113
*1438 FILLER_0_32_121
*1439 FILLER_0_32_130
*1440 FILLER_0_32_138
*1441 FILLER_0_32_144
*1442 FILLER_0_32_156
*1443 FILLER_0_32_17
*1444 FILLER_0_32_172
*1445 FILLER_0_32_180
*1446 FILLER_0_32_187
*1447 FILLER_0_32_195
*1448 FILLER_0_32_203
*1449 FILLER_0_32_213
*1450 FILLER_0_32_225
*1451 FILLER_0_32_250
*1452 FILLER_0_32_253
*1453 FILLER_0_32_265
*1454 FILLER_0_32_3
*1455 FILLER_0_32_40
*1456 FILLER_0_32_48
*1457 FILLER_0_32_70
*1458 FILLER_0_32_74
*1459 FILLER_0_32_85
*1460 FILLER_0_33_107
*1461 FILLER_0_33_111
*1462 FILLER_0_33_113
*1463 FILLER_0_33_125
*1464 FILLER_0_33_132
*1465 FILLER_0_33_139
*1466 FILLER_0_33_15
*1467 FILLER_0_33_151
*1468 FILLER_0_33_165
*1469 FILLER_0_33_175
*1470 FILLER_0_33_181
*1471 FILLER_0_33_206
*1472 FILLER_0_33_223
*1473 FILLER_0_33_225
*1474 FILLER_0_33_258
*1475 FILLER_0_33_26
*1476 FILLER_0_33_270
*1477 FILLER_0_33_3
*1478 FILLER_0_33_32
*1479 FILLER_0_33_49
*1480 FILLER_0_33_55
*1481 FILLER_0_33_57
*1482 FILLER_0_33_70
*1483 FILLER_0_33_76
*1484 FILLER_0_34_100
*1485 FILLER_0_34_121
*1486 FILLER_0_34_13
*1487 FILLER_0_34_132
*1488 FILLER_0_34_141
*1489 FILLER_0_34_146
*1490 FILLER_0_34_158
*1491 FILLER_0_34_169
*1492 FILLER_0_34_177
*1493 FILLER_0_34_183
*1494 FILLER_0_34_195
*1495 FILLER_0_34_197
*1496 FILLER_0_34_224
*1497 FILLER_0_34_236
*1498 FILLER_0_34_240
*1499 FILLER_0_34_244
*1500 FILLER_0_34_250
*1501 FILLER_0_34_261
*1502 FILLER_0_34_269
*1503 FILLER_0_34_79
*1504 FILLER_0_34_83
*1505 FILLER_0_34_94
*1506 FILLER_0_35_113
*1507 FILLER_0_35_121
*1508 FILLER_0_35_165
*1509 FILLER_0_35_169
*1510 FILLER_0_35_173
*1511 FILLER_0_35_181
*1512 FILLER_0_35_191
*1513 FILLER_0_35_203
*1514 FILLER_0_35_215
*1515 FILLER_0_35_223
*1516 FILLER_0_35_225
*1517 FILLER_0_35_237
*1518 FILLER_0_35_249
*1519 FILLER_0_35_261
*1520 FILLER_0_35_267
*1521 FILLER_0_35_3
*1522 FILLER_0_35_77
*1523 FILLER_0_35_88
*1524 FILLER_0_36_111
*1525 FILLER_0_36_15
*1526 FILLER_0_36_156
*1527 FILLER_0_36_170
*1528 FILLER_0_36_174
*1529 FILLER_0_36_195
*1530 FILLER_0_36_197
*1531 FILLER_0_36_201
*1532 FILLER_0_36_209
*1533 FILLER_0_36_224
*1534 FILLER_0_36_236
*1535 FILLER_0_36_244
*1536 FILLER_0_36_248
*1537 FILLER_0_36_253
*1538 FILLER_0_36_265
*1539 FILLER_0_36_27
*1540 FILLER_0_36_3
*1541 FILLER_0_36_33
*1542 FILLER_0_36_45
*1543 FILLER_0_36_49
*1544 FILLER_0_36_56
*1545 FILLER_0_36_62
*1546 FILLER_0_36_66
*1547 FILLER_0_36_78
*1548 FILLER_0_36_88
*1549 FILLER_0_37_105
*1550 FILLER_0_37_118
*1551 FILLER_0_37_139
*1552 FILLER_0_37_15
*1553 FILLER_0_37_151
*1554 FILLER_0_37_167
*1555 FILLER_0_37_176
*1556 FILLER_0_37_196
*1557 FILLER_0_37_225
*1558 FILLER_0_37_255
*1559 FILLER_0_37_267
*1560 FILLER_0_37_27
*1561 FILLER_0_37_3
*1562 FILLER_0_37_31
*1563 FILLER_0_37_35
*1564 FILLER_0_37_46
*1565 FILLER_0_37_57
*1566 FILLER_0_37_69
*1567 FILLER_0_37_81
*1568 FILLER_0_37_89
*1569 FILLER_0_37_97
*1570 FILLER_0_38_109
*1571 FILLER_0_38_121
*1572 FILLER_0_38_133
*1573 FILLER_0_38_139
*1574 FILLER_0_38_141
*1575 FILLER_0_38_15
*1576 FILLER_0_38_153
*1577 FILLER_0_38_165
*1578 FILLER_0_38_169
*1579 FILLER_0_38_177
*1580 FILLER_0_38_189
*1581 FILLER_0_38_195
*1582 FILLER_0_38_197
*1583 FILLER_0_38_227
*1584 FILLER_0_38_250
*1585 FILLER_0_38_253
*1586 FILLER_0_38_265
*1587 FILLER_0_38_27
*1588 FILLER_0_38_3
*1589 FILLER_0_38_60
*1590 FILLER_0_38_72
*1591 FILLER_0_38_85
*1592 FILLER_0_38_93
*1593 FILLER_0_38_97
*1594 FILLER_0_39_108
*1595 FILLER_0_39_116
*1596 FILLER_0_39_128
*1597 FILLER_0_39_132
*1598 FILLER_0_39_146
*1599 FILLER_0_39_15
*1600 FILLER_0_39_152
*1601 FILLER_0_39_156
*1602 FILLER_0_39_162
*1603 FILLER_0_39_169
*1604 FILLER_0_39_181
*1605 FILLER_0_39_193
*1606 FILLER_0_39_205
*1607 FILLER_0_39_222
*1608 FILLER_0_39_225
*1609 FILLER_0_39_259